/batch
/config,noeldb,1     ! force off writing results to database
*get,_wallstrt,active,,time,wall
! ANSYS input file written by Workbench version 2020 R2
! File used for geometry attach: C:\Users\BALTAZAR\Desktop\CATIA\OMU497\delta robot\servo arm.stp
/title,ServoARM--Static Structural (A5)
*DIM,_wb_ProjectScratch_dir,string,248
_wb_ProjectScratch_dir(1) = 'C:\Users\BALTAZAR\Desktop\ANSYS\DELTA ANSYS\_ProjectScratch\ScrFF70\'
*DIM,_wb_SolverFiles_dir,string,248
_wb_SolverFiles_dir(1) = 'C:\Users\BALTAZAR\Desktop\ANSYS\DELTA ANSYS\ServoARM_files\dp0\SYS\MECH\'
*DIM,_wb_userfiles_dir,string,248
_wb_userfiles_dir(1) = 'C:\Users\BALTAZAR\Desktop\ANSYS\DELTA ANSYS\ServoARM_files\user_files\'
/com,--- Data in consistent MKS units. See Solving Units in the help system for more information.
/units,MKS
/nopr
/wb,file,start              !  signify a WB generated input file
/prep7
! Turn off shape checking because checks already performed inside WB mesher.
! See help system for more information.
SHPP,OFF,,NOWARN
/nolist
etcon,set             ! allow ANSYS to choose best KEYOP's for 180x elements
/com,*********** Nodes for the whole assembly ***********
nblock,3,,2363
(1i9,3e20.9e3)
        1     2.397127693E-03     6.561208719E-02     2.612087191E-03
        2     2.397127693E-03     6.561208719E-02    -8.000000000E-03
        3     2.397127693E-03     6.561208719E-02    -9.252752063E-04
        4     2.397127693E-03     6.561208719E-02    -4.896495448E-03
        5    -2.397127693E-03     7.438791281E-02    -8.000000000E-03
        6     4.797748150E-03     6.859230234E-02    -8.000000000E-03
        7     4.387912809E-03     7.239712769E-02    -8.000000000E-03
        8     1.407697656E-03     7.479774815E-02    -8.000000000E-03
        9    -2.397127693E-03     7.438791281E-02     2.200000000E-02
       10    -2.397127693E-03     7.438791281E-02     1.771428571E-02
       11    -2.397127693E-03     7.438791281E-02     1.342857143E-02
       12    -2.397127693E-03     7.438791281E-02     9.142857143E-03
       13    -2.397127693E-03     7.438791281E-02     4.857142857E-03
       14    -2.397127693E-03     7.438791281E-02    -3.714285714E-03
       15     2.397127693E-03     6.561208719E-02     2.200000000E-02
       16     4.797748150E-03     6.859230234E-02     2.200000000E-02
       17     4.387912809E-03     7.239712769E-02     2.200000000E-02
       18     1.407697656E-03     7.479774815E-02     2.200000000E-02
       19     2.397127693E-03     6.561208719E-02     1.138791281E-02
       20     2.397127693E-03     6.561208719E-02     1.846263760E-02
! ... 2130 like lines cut
/wb,elem,start            !  set before creation of elements
/com,*********** Elements for Body 1 "servo arm-FreeParts|PartBody" ***********
et,1,187
eblock,19,solid,,1111
(19i9)
        1        1        1        1        0        0        0        0       10        0        1      180      182      363      183     1512     1531     1519     1513
     1526     1540
        1        1        1        1        0        0        0        0       10        0        2       13      363      183      354      460     1540      452      458
     2144     1539
        1        1        1        1        0        0        0        0       10        0        3       13      182      183      363      451     1526      452      460
     1531     1540
        1        1        1        1        0        0        0        0       10        0        4      180      363      182      181     1519     1531     1512     1511
     1525     1520
        1        1        1        1        0        0        0        0       10        0        5      177      182      363      181     1495     1531     1499     1494
     1520     1525
        1        1        1        1        0        0        0        0       10        0        6      180      363      342      354     1519     2126     1517     1518
     2144     2124
        1        1        1        1        0        0        0        0       10        0        7      180      363      181      342     1519     1525     1511     1517
     2126     1524
        1        1        1        1        0        0        0        0       10        0        8      177      181      363      342     1494     1525     1499     1498
     1524     2126
        1        1        1        1        0        0        0        0       10        0        9       92      317      362      353      978     2031      982      981
     2029     2143
        1        1        1        1        0        0        0        0       10        0       10       92       94      362      317      976      994      982      978
      993     2031
! ... 2203 like lines cut
!Material Id = {EFE99A12-F707-46FD-BB46-343CF24CB7A3}
/wb,elem,end               !  done creating elements
/com,*********** Send User Defined Coordinate System(s) ***********
csys,0
toffst,273.15,  ! Temperature offset from absolute zero
/com,*********** Set Reference Temperature ***********
tref,22.
/wb,mat,start              !  starting to send materials
/com,*********** Send Materials ***********
MP,DENS,1,7850,	! kg m^-3
MP,ALPX,1,1.2e-05,	! C^-1
MP,C,1,434,	! J kg^-1 C^-1
MP,KXX,1,60.5,	! W m^-1 C^-1
MP,RSVX,1,1.7e-07,	! kg m^3 A^-2 s^-3
MP,EX,1,200000000000,	! Pa
MP,NUXY,1,0.3,
MP,MURX,1,10000,

/wb,mat,end                !  done sending materials
!************************* Model Summary ********************
!servo arm-FreeParts|PartBody,	Structural Steel,	matid,	1
!************************* End Model Summary ********************
! get the diagonal of the bounding box. Needed later for other things
*get,_xmin,node,,mnloc,x
*get,_ymin,node,,mnloc,y
*get,_zmin,node,,mnloc,z
*get,_xmax,node,,mxloc,x
*get,_ymax,node,,mxloc,y
*get,_zmax,node,,mxloc,z
_ASMDIAG=(_xmax-_xmin)*(_xmax-_xmin)+(_ymax-_ymin)*(_ymax-_ymin)+(_zmax-_zmin)*(_zmax-_zmin)
_ASMDIAG=SQRT(_ASMDIAG)
/wb,contact,start          !  starting to send contact
/wb,contact,end            !  done creating contacts
/golist
/wb,load,start             !  starting to send loads
/com,*********** Fixed Supports ***********
CMBLOCK,_FIXEDSU,NODE,       30
(8i10)
        37        41        42        43        46        47       160       162
       164       165       166       167       619       620       622       655
       657       658       666       673       696      1399      1400      1412
      1413      1424      1425      1431      1432      1439
cmsel,s,_FIXEDSU
d,all,all
nsel,all
/com,*********** Define Force Using Surface Effect Elements ***********
local,12,0,0.,0.,0.,0.,0.,0.
csys,0
et,2,154
eblock,10,,,48
(15i9)
     1726        2        2        2       12       24        1      293      293      368      375      293      532
     1727        2        2        2       12       19      292       21       21      495      511       21      488
     1728        2        2        2       12       23       22      286      286      513      516      286      524
     1729        2        2        2       12       22       24      287      287      514      531      287      517
     1730        2        2        2       12        2        6        4        4      379      391        4      378
     1731        2        2        2       12        6        7      288      288      402      411      288      406
     1732        2        2        2       12        7      295      288      288      412     1934      288      411
     1733        2        2        2       12        8        5       14       14      398      399       14      413
     1734        2        2        2       12       16       15       20       20      469      470       20      474
     1735        2        2        2       12       17       16      289      289      473      478      289      482
     1736        2        2        2       12       18       17      296      296      479      483      296      486
     1737        2        2        2       12        9       18       10       10      420      426       10      419
     1738        2        2        2       12        3        4      288      288      382      396      288      388
     1739        2        2        2       12       20       21      289      289      497      510      289      502
     1740        2        2        2       12       11       10      290      290      425      431      290      437
     1741        2        2        2       12       12       11      290      290      434      437      290      444
     1742        2        2        2       12       13       12      297      297      439      445      297      454
     1743        2        2        2       12       23      292       19       19      525      495       19      489
     1744        2        2        2       12      293        1        3        3      375      367        3      389
     1745        2        2        2       12       23      286      292      292      524     1922      292      525
! ... 29 like lines cut
esel,s,type,,2
keyop,2,2,1                ! Apply load in local coordinate system
keyop,2,7,1                ! Use original area so load is constant in large deformation
keyop,2,11,2               ! Use real and not project area
esel,all
/gst,on,on
fini
*get,_numnode,node,0,count
*get,_numelem,elem,0,count
*get, _MAXELEMNUM, elem, 0, NUM, MAX
*get, _MAXNODENUM, node, 0, NUM, MAX
*get, _MAXELEMTYPE, etyp, 0, NUM, MAX
*get, _MAXREALCONST, real, 0, NUM, MAX
/go
/wb,load,end               !  done creating loads
/com,--- Number of total nodes = %_numnode%
/com,--- Number of contact elements = 48
/com,--- Number of spring elements = 0
/com,--- Number of bearing elements = 0
/com,--- Number of solid elements = 1111
/com,--- Number of condensed parts = 0
/com,--- Number of total elements = %_numelem%
*get,_wallbsol,active,,time,wall
/com,****************************************************************************
/com,*************************    SOLUTION       ********************************
/com,****************************************************************************
/solu
antype,0                   ! static analysis
_thickRatio=  1     ! Ratio of thick parts in the model
eqsl,pcg,1e-8,,,,,,1
cntr,print,1               ! print out contact info and also make no initial contact an error
nldiag,cont,iter           ! print out contact info each equilibrium iteration
rescontrol,,none                 ! Do not keep any restart files
/com,****************************************************
/com,******************* SOLVE FOR LS 1 OF 1 ****************
esel,s,type,,2
nsle
sfe,all,1,pres,1,-6740.26595578891
sfe,all,2,pres,1,0.
sfe,all,3,pres,1,0.
nsel,all
esel,all
/nopr
/gopr
nsub,1,1,1
time,1.
outres,erase
outres,all,none
outres,nsol,all,
outres,rsol,all
outres,eangl,all
outres,etmp,all
outres,veng,all
outres,strs,all,
outres,epel,all,
outres,eppl,all,
outres,cont,all,
! *********** WB SOLVE COMMAND ***********
! check interactive state
*get,ANSINTER_,active,,int
*if,ANSINTER_,ne,0,then
/eof
*endif
solve
/com *************** Write FE CONNECTORS ********* 
CEWRITE,file,ce,,INTE
/com,****************************************************
/com,*************** FINISHED SOLVE FOR LS 1 *************
*get,_wallasol,active,,time,wall
/nopr
*get,_numnode,node,0,count
*get,_numelem,elem,0,count
*get, _MAXELEMNUM, elem, 0, NUM, MAX
*get, _MAXNODENUM, node, 0, NUM, MAX,,,INTERNAL
*get, _MAXELEMTYPE, etyp, 0, NUM, MAX
*get, _MAXREALCONST, real, 0, NUM, MAX
/gopr
*get,_PCGITER,active,,solu,cgiter
/post1
xmlo,ENCODING,ISO-8859-1
xmlo,parm
/xml,parm,xml
fini
/gopr
*get,_walldone,active,,time,wall
_preptime=(_wallbsol-_wallstrt)*3600
_solvtime=(_wallasol-_wallbsol)*3600
_posttime=(_walldone-_wallasol)*3600
_totaltim=(_walldone-_wallstrt)*3600
*get,_dlbratio,active,0,solu,dlbr
*get,_combtime,active,0,solu,comb
/com,--- Total number of nodes = %_numnode%
/com,--- Total number of elements = %_numelem%
/com,--- Element load balance ratio = %_dlbratio%
/com,--- Time to combine distributed files = %_combtime%
/wb,file,end               ! done with WB generated input
