/batch
/config,noeldb,1     ! force off writing results to database
*get,_wallstrt,active,,time,wall
! ANSYS input file written by Workbench version 2020 R2
! File used for geometry attach: C:\Users\BALTAZAR\Desktop\CATIA\OMU497\delta robot\Bearing 623 ZZ.STEP
/title,bearings--Static Structural (A5)
*DIM,_wb_ProjectScratch_dir,string,248
_wb_ProjectScratch_dir(1) = 'C:\Users\BALTAZAR\Desktop\ANSYS\OMU497TERM\_ProjectScratch\Scr3139\'
*DIM,_wb_SolverFiles_dir,string,248
_wb_SolverFiles_dir(1) = 'C:\Users\BALTAZAR\Desktop\ANSYS\OMU497TERM\bearings_files\dp0\SYS\MECH\'
*DIM,_wb_userfiles_dir,string,248
_wb_userfiles_dir(1) = 'C:\Users\BALTAZAR\Desktop\ANSYS\OMU497TERM\bearings_files\user_files\'
/com,--- Data in consistent MKS units. See Solving Units in the help system for more information.
/units,MKS
/nopr
/wb,file,start              !  signify a WB generated input file
/prep7
! Turn off shape checking because checks already performed inside WB mesher.
! See help system for more information.
SHPP,OFF,,NOWARN
/nolist
etcon,set             ! allow ANSYS to choose best KEYOP's for 180x elements
/com,*********** Nodes for the whole assembly ***********
nblock,3,,8420
(1i9,3e20.9e3)
        1    -2.803524304E-04     2.484230769E-03     6.614378278E-04
        2    -2.659189159E-04     2.234230769E-03    -3.760130086E-16
        3    -1.232430148E-03     1.882449450E-03     3.756752393E-16
        4    -7.695453225E-04     2.114308397E-03    -1.224646799E-19
        5    -1.382070337E-03     2.083238245E-03     6.614378278E-04
        6    -8.550503583E-04     2.349231552E-03     6.614378278E-04
        7    -1.811595179E-03     1.722824108E-03     6.614378278E-04
        8    -1.639841563E-03     1.540590681E-03    -3.759876682E-16
        9    -2.154111448E-03     6.498491116E-04     3.756807429E-16
       10    -1.948557159E-03     1.125000000E-03    -1.224646799E-19
       11    -2.397807033E-03     7.074753930E-04     6.614378278E-04
       12    -2.165063509E-03     1.250000000E-03     6.614378278E-04
       13    -2.495172410E-03     1.552888990E-04     6.614378278E-04
       14    -2.246464119E-03     1.260910915E-04    -3.759189046E-16
       15    -2.067860062E-03    -8.868228481E-04     3.755894048E-16
       16    -2.215817444E-03    -3.907083998E-04    -1.224646799E-19
       17    -2.291583170E-03    -9.993230579E-04     6.614378278E-04
       18    -2.500000000E-03     0.000000000E+00     6.614378278E-04
       19    -2.447341203E-03    -5.104126147E-04     6.614378278E-04
       20    -2.011230740E-03    -1.484907711E-03     6.614378278E-04
! ... 7636 like lines cut
/wb,elem,start            !  set before creation of elements
/com,*********** Elements for Body 1 "Bearing 623 ZZ-FreeParts|Fillet3" ***********
et,1,187
eblock,19,solid,,4101
(19i9)
        1        1        1        1        0        0        0        0       10        0        1      251     1234      740     1178     3236     6124     3232     3235
     7638     6123
        1        1        1        1        0        0        0        0       10        0        2      251     1234      737      740     3236     6110     3231     3232
     6124     6107
        1        1        1        1        0        0        0        0       10        0        3      740     1234      741     1143     6124     6127     6121     6122
     7604     6126
        1        1        1        1        0        0        0        0       10        0        4      737     1234      741      740     6110     6127     6108     6107
     6124     6121
        1        1        1        1        0        0        0        0       10        0        5      738      741     1234     1143     6112     6127     6116     6114
     6126     7604
        1        1        1        1        0        0        0        0       10        0        6      738      741      742     1234     6112     6125     6113     6116
     6127     6128
        1        1        1        1        0        0        0        0       10        0        7      738     1143     1234     1175     6114     7604     6116     6115
     7602     7634
        1        1        1        1        0        0        0        0       10        0        8      251      252     1234     1178     3229     3249     3236     3235
     3248     7638
        1        1        1        1        0        0        0        0       10        0        9      251     1234      252      737     3236     3249     3229     3231
     6110     3241
        1        1        1        1        0        0        0        0       10        0       10      738     1234      739     1175     6116     6120     6111     6115
     7634     6119
! ... 8183 like lines cut
!Material Id = {7723B255-08DE-4528-AB44-1087C98E4907}
/wb,elem,end               !  done creating elements
/com,*********** Send User Defined Coordinate System(s) ***********
csys,0
toffst,273.15,  ! Temperature offset from absolute zero
/com,*********** Set Reference Temperature ***********
tref,22.
/wb,mat,start              !  starting to send materials
/com,*********** Send Materials ***********
MP,DENS,1,7850,	! kg m^-3
MP,ALPX,1,1.2e-05,	! C^-1
MP,C,1,434,	! J kg^-1 C^-1
MP,KXX,1,60.5,	! W m^-1 C^-1
MP,RSVX,1,1.7e-07,	! kg m^3 A^-2 s^-3
MP,EX,1,200000000000,	! Pa
MP,NUXY,1,0.3,
MP,MURX,1,10000,

/wb,mat,end                !  done sending materials
!************************* Model Summary ********************
!Bearing 623 ZZ-FreeParts|Fillet3,	Structural Steel 2,	matid,	1
!************************* End Model Summary ********************
! get the diagonal of the bounding box. Needed later for other things
*get,_xmin,node,,mnloc,x
*get,_ymin,node,,mnloc,y
*get,_zmin,node,,mnloc,z
*get,_xmax,node,,mxloc,x
*get,_ymax,node,,mxloc,y
*get,_zmax,node,,mxloc,z
_ASMDIAG=(_xmax-_xmin)*(_xmax-_xmin)+(_ymax-_ymin)*(_ymax-_ymin)+(_zmax-_zmin)*(_zmax-_zmin)
_ASMDIAG=SQRT(_ASMDIAG)
/wb,contact,start          !  starting to send contact
/wb,contact,end            !  done creating contacts
/golist
/wb,load,start             !  starting to send loads
/com,*********** Fixed Supports ***********
CMBLOCK,_FIXEDSU,NODE,      371
(8i10)
        58        59       144       146       293       294       295       296
       297       298       299       300       568       569       570       571
       572       573       574       575       576       577       578       579
       580       581       582       583       584       585       586       587
       588       589       590       591       592       593       594       595
       596       597       598       599       600       601       602       603
       604       605       606       607       608       609       902       903
       904       905       906       907       908       909       910       911
       912       913       914       915       916       917       918       919
       920       921       922       923       924       925       926       927
       928       929       930       931       932       933       934       935
       936       937       938       939       940       941       942       943
       944       945       946       947       948       949       950       951
       952       953       954      1827      1828      1833      1834      2446
      2447      2457      2458      3572      3573      3574      3579      3582
      3583      3591      3594      3595      3601      3602      3607      3608
      3609      3613      3615      3616      3621      3623      3627      3628
      5274      5277      5278      5281      5283      5284      5287      5291
      5295      5299      5300      5304      5308      5309      5314      5317
      5318      5320      5323      5324      5327      5329      5330      5333
! ... 27 like lines cut
cmsel,s,_FIXEDSU
d,all,all
nsel,all
/com,*********** Define Force Using Surface Effect Elements ***********
local,12,0,0.,0.,0.,0.,0.,0.
csys,0
et,2,156
keyop,2,5,1         !  No orientation node
eblock,10,,,17
(15i9)
     6224        2        2        2       12      486      487     4770
     6225        2        2        2       12      495      379     4192
     6226        2        2        2       12      494      495     4804
     6227        2        2        2       12      494      493     4801
     6228        2        2        2       12      490      491     4788
     6229        2        2        2       12      488      487     4775
     6230        2        2        2       12      480      481     4749
     6231        2        2        2       12      485      486     4766
     6232        2        2        2       12      482      481     4752
     6233        2        2        2       12      485      484     4762
     6234        2        2        2       12      483      482     4756
     6235        2        2        2       12      492      493     4796
     6236        2        2        2       12      492      491     4791
     6237        2        2        2       12      480      380     4196
     6238        2        2        2       12      490      489     4783
     6239        2        2        2       12      484      483     4760
     6240        2        2        2       12      489      488     4778
-1
esel,s,type,,2
keyop,2,2,1                ! Apply load in local coordinate system
keyop,2,7,1                ! Use original area so load is constant in large deformation
esel,all
/gst,on,on
fini
*get,_numnode,node,0,count
*get,_numelem,elem,0,count
*get, _MAXELEMNUM, elem, 0, NUM, MAX
*get, _MAXNODENUM, node, 0, NUM, MAX
*get, _MAXELEMTYPE, etyp, 0, NUM, MAX
*get, _MAXREALCONST, real, 0, NUM, MAX
/go
/wb,load,end               !  done creating loads
/com,--- Number of total nodes = %_numnode%
/com,--- Number of contact elements = 17
/com,--- Number of spring elements = 0
/com,--- Number of bearing elements = 0
/com,--- Number of solid elements = 4101
/com,--- Number of condensed parts = 0
/com,--- Number of total elements = %_numelem%
*get,_wallbsol,active,,time,wall
/com,****************************************************************************
/com,*************************    SOLUTION       ********************************
/com,****************************************************************************
/solu
antype,0                   ! static analysis
_thickRatio=  0     ! Ratio of thick parts in the model
eqsl,sparse,,,,,1
cntr,print,1               ! print out contact info and also make no initial contact an error
nldiag,cont,iter           ! print out contact info each equilibrium iteration
rescontrol,,none                 ! Do not keep any restart files
/com,****************************************************
/com,******************* SOLVE FOR LS 1 OF 1 ****************
esel,s,type,,2
nsle
sfe,all,1,pres,1,0.
sfe,all,2,pres,1,0.
sfe,all,3,pres,1,4488.98739085865
nsel,all
esel,all
/nopr
/gopr
nsub,1,1,1
time,1.
outres,erase
outres,all,none
outres,nsol,all,
outres,rsol,all
outres,eangl,all
outres,etmp,all
outres,veng,all
outres,strs,all,
outres,epel,all,
outres,eppl,all,
outres,cont,all,
! *********** WB SOLVE COMMAND ***********
! check interactive state
*get,ANSINTER_,active,,int
*if,ANSINTER_,ne,0,then
/eof
*endif
solve
/com *************** Write FE CONNECTORS ********* 
CEWRITE,file,ce,,INTE
/com,****************************************************
/com,*************** FINISHED SOLVE FOR LS 1 *************
*get,_wallasol,active,,time,wall
/nopr
*get,_numnode,node,0,count
*get,_numelem,elem,0,count
*get, _MAXELEMNUM, elem, 0, NUM, MAX
*get, _MAXNODENUM, node, 0, NUM, MAX,,,INTERNAL
*get, _MAXELEMTYPE, etyp, 0, NUM, MAX
*get, _MAXREALCONST, real, 0, NUM, MAX
/gopr
/post1
xmlo,ENCODING,ISO-8859-1
xmlo,parm
/xml,parm,xml
fini
/gopr
*get,_walldone,active,,time,wall
_preptime=(_wallbsol-_wallstrt)*3600
_solvtime=(_wallasol-_wallbsol)*3600
_posttime=(_walldone-_wallasol)*3600
_totaltim=(_walldone-_wallstrt)*3600
*get,_dlbratio,active,0,solu,dlbr
*get,_combtime,active,0,solu,comb
/com,--- Total number of nodes = %_numnode%
/com,--- Total number of elements = %_numelem%
/com,--- Element load balance ratio = %_dlbratio%
/com,--- Time to combine distributed files = %_combtime%
/wb,file,end               ! done with WB generated input
